Circuit: * C:\Users\Vilho\Desktop\Alykkaat-Jarjestelmat-Saaasema\Circuits\Analog.asc

Direct Newton iteration failed to find .op point.  (Use ".option noopiter" to skip.)
Starting Gmin stepping
Gmin = 10
Gmin = 1.07374
Gmin = 0.115292
Gmin = 0.0123794
Gmin = 0.00132923
Gmin = 0.000142725
Gmin = 1.5325e-05
Gmin = 1.6455e-06
vernier = 0.5
vernier = 0.25
vernier = 0.125
vernier = 0.0625
vernier = 0.03125
Gmin = 1.28603e-06
vernier = 0.0416667
vernier = 0.0555555
Gmin = 1.15746e-06
vernier = 0.074074
Gmin = 9.81142e-07
vernier = 0.0987653
vernier = 0.131687
Gmin = 7.44567e-07
vernier = 0.175583
vernier = 0.23411
Gmin = 4.81307e-07
vernier = 0.312147
Gmin = 2.44237e-07
vernier = 0.416196
vernier = 0.554928
Gmin = 8.0204e-08
vernier = 0.739903
vernier = 0.986537
Gmin = 1.43753e-08
vernier = 1
Gmin = 1.56028e-09
Gmin = 1.67533e-10
Gmin = 1.79888e-11
Gmin = 1.93153e-12
Gmin = 2.07396e-13
Gmin = 0
Gmin stepping succeeded in finding the operating point.


Date: Thu Apr 27 14:19:03 2023
Total elapsed time: 0.374 seconds.

tnom = 27
temp = 27
method = modified trap
totiter = 7272
traniter = 6241
tranpoints = 2112
accept = 1741
rejected = 371
matrix size = 28
fillins = 27
solver = Normal
Avg thread counts: 1.1/1.3/1.3/1.1
Matrix Compiler1: 2.79 KB object code size  1.8/1.2/[0.4]
Matrix Compiler2: off  [1.9]/2.2/2.9

